Version 4.1
SHEET 1 916 2864
TEXT 64 -8 Left 2 !**********************************************************\n*\n* PSSI2021SAY\n*\n* Nexperia\n*\n* Constant current source\n* output current = max 50mA\n* supply voltage = max 75V \n*\n*\n*\n*\n*\n* Package pinning does not match Spice model pinning.\n* Package: SOT 353\n*  \n* Package Pin 1: not connected   4: external resistor\n* Package Pin 2: output current  5: supply voltage\n* Package Pin 3: GND\n*\n* \n* #\n* Spicemodel does not include temperature dependency\n*\n**********************************************************\n*#\n.SUBCKT PSSI2021SAY 1 2 3 4\n*\nQ1 1 22 3 MAIN\nD1 4 44 DIODE1\nD2 44 22 DIODE2\nRD2 44 22 5E+09\nRbase 2 22 3.35E+04\nRint 3 4 5.28E+04\n*\n.MODEL MAIN PNP\n+ IS = 4.512E-14\n+ NF = 1.004\n+ ISE = 1E-25\n+ NE = 0.9237\n+ BF = 120\n+ IKF = 1.1\n+ VAF = 104\n+ NR = 1.002\n+ ISC = 1.465E-11\n+ NC = 1.599\n+ BR = 16.5\n+ IKR = 5E+04\n+ VAR = 12.7\n+ RB = 27\n+ IRB = 0.00074\n+ RBM = 1.595\n+ RE = 0.1\n+ RC = 0.23\n+ XTB = 0\n+ EG = 1.11\n+ XTI = 3\n+ CJE = 0\n+ VJE = 0.75\n+ MJE = 0.333\n+ TF = 2E-30\n+ XTF = 0\n+ VTF = 1000\n+ ITF = 0\n+ PTF = 0\n+ CJC = 0\n+ VJC = 0.75\n+ MJC = 0.333\n+ XCJC = 1\n+ TR = 1E-32\n+ CJS = 0\n+ VJS = 0.75\n+ MJS = 0.333\n+ FC = 0.78\n.MODEL DIODE1 D\n+ IS = 1.673E-14\n+ N = 1.089\n+ BV = 1000\n+ IBV = 0.001\n+ RS = 0.7739\n+ CJO = 0\n+ VJ = 1\n+ M = 0.5\n+ FC = 0\n+ TT = 0\n+ EG = 1.11\n+ XTI = 3\n.MODEL DIODE2 D\n+ IS = 1.12E-14\n+ N = 1.076\n+ BV = 1000\n+ IBV = 0.001\n+ RS = 0.8848\n+ CJO = 0\n+ VJ 1\n+ M = 0.5\n+ FC = 0\n+ TT = 0\n+ EG = 1.11\n+ XTI = 3\n.ENDS\n*
